Version 4
SHEET 1 1220 680
WIRE 240 -240 160 -240
WIRE 160 -192 160 -240
WIRE 160 -80 160 -112
WIRE 224 -80 160 -80
WIRE 368 -80 304 -80
WIRE 544 -80 368 -80
WIRE 704 -80 624 -80
WIRE 160 -64 160 -80
WIRE 432 16 432 0
WIRE 160 32 160 16
WIRE 368 32 368 -80
WIRE 416 32 368 32
WIRE 704 48 704 -80
WIRE 704 48 480 48
WIRE 800 48 704 48
WIRE 416 64 16 64
WIRE 432 96 432 80
WIRE 16 160 16 64
WIRE 240 240 240 -240
WIRE 256 240 240 240
WIRE 240 256 240 240
WIRE 16 272 16 240
WIRE 240 352 240 336
FLAG 432 0 VC
FLAG 432 96 0
FLAG 16 272 0
FLAG 240 352 0
FLAG 256 240 VC
FLAG 160 32 0
SYMBOL voltage 16 144 R0
WINDOW 3 -362 -62 Left 2
WINDOW 123 0 0 Left 0
WINDOW 39 -130 8 Left 2
SYMATTR Value PULSE(2.0 1.0 0.1e-6 1e-8 1e-8 1e-6 1e-6 1)
SYMATTR SpiceLine Rser=200
SYMATTR InstName V1
SYMBOL voltage 240 240 R0
WINDOW 0 31 25 Left 2
WINDOW 123 0 0 Left 0
WINDOW 39 0 0 Left 0
SYMATTR InstName V2
SYMATTR Value 3.3
SYMBOL OpAmps\\ADA4807-2 448 48 R0
SYMATTR InstName U1
SYMBOL res 320 -96 R90
WINDOW 0 0 56 VBottom 2
WINDOW 3 32 56 VTop 2
SYMATTR InstName Rg1
SYMATTR Value 4.5k
SYMBOL res 640 -96 R90
WINDOW 0 0 56 VBottom 2
WINDOW 3 32 56 VTop 2
SYMATTR InstName Rf
SYMATTR Value 10k
SYMBOL res 176 -96 R180
WINDOW 0 36 76 Left 2
WINDOW 3 36 40 Left 2
SYMATTR InstName R1
SYMATTR Value 1.3k
SYMBOL res 176 32 R180
WINDOW 0 36 76 Left 2
WINDOW 3 36 40 Left 2
SYMATTR InstName Rg2
SYMATTR Value 500
TEXT -104 40 Left 2 ;CCD ouput pulse
TEXT -104 368 Left 2 !.tran 0 2e-6 0 1e-8
